%chk=CHEMBL1521196_opt.chk
%nprocshared=20
# b3lyp/def2svp scf=(maxcycle=512, xqc) pop=(full,mbs,hirshfeld,nbo6read)

None

-1 2
C       -1.212700000       0.655940000      -0.127320000
C       -1.182340000      -0.720190000       0.022490000
C        0.030360000      -1.376130000       0.149810000
C        1.212700000      -0.655940000       0.127320000
C        1.182340000       0.720190000      -0.022490000
C       -0.030360000       1.376130000      -0.149810000
H       -2.159020000       1.167790000      -0.226700000
H       -2.104960000      -1.282190000       0.040000000
H        0.054050000      -2.449980000       0.266700000
H        2.159020000      -1.167790000       0.226700000
H        2.104960000       1.282190000      -0.040000000
H       -0.054050000       2.449980000      -0.266700000

$NBO BNDIDX $END



