CHEMBL231079
xtb program, MCTC, University of Bonn, Germany

 62 66  0     0  0  0  0  0  0999 V2000
 -11.27718  -1.85211   1.47279 C   0  0  0  0  0  0  0  0  0  0  0  0
 -10.10598  -0.99320   1.11211 C   0  0  0  0  0  0  0  0  0  0  0  0
 -10.28075   0.41158   1.03725 C   0  0  0  0  0  0  0  0  0  0  0  0
  -9.24520   1.23165   0.71559 C   0  0  0  0  0  0  0  0  0  0  0  0
  -8.02720   0.70041   0.46365 N   0  0  0  0  0  0  0  0  0  0  0  0
  -6.83975   1.26833   0.13301 C   0  0  0  0  0  0  0  0  0  0  0  0
  -5.93253   0.22864   0.00265 C   0  0  0  0  0  0  0  0  0  0  0  0
  -4.52087   0.29469  -0.32868 C   0  0  0  0  0  0  0  0  0  0  0  0
  -3.77568  -0.88369  -0.41766 C   0  0  0  0  0  0  0  0  0  0  0  0
  -2.43428  -0.84696  -0.71707 C   0  0  0  0  0  0  0  0  0  0  0  0
  -1.78857   0.37250  -0.93763 C   0  0  0  0  0  0  0  0  0  0  0  0
  -0.45825   0.30095  -1.21997 O   0  0  0  0  0  0  0  0  0  0  0  0
   0.26324   1.50224  -1.38831 C   0  0  0  0  0  0  0  0  0  0  0  0
   1.73166   1.16010  -1.61409 C   0  0  0  0  0  0  0  0  0  0  0  0
   2.33438   0.45761  -0.39668 C   0  0  0  0  0  0  0  0  0  0  0  0
   3.73843   0.15137  -0.60725 N   0  0  0  0  0  0  0  0  0  0  0  0
   4.19672  -0.97641   0.18102 C   0  0  0  0  0  0  0  0  0  0  0  0
   5.63067  -1.33773  -0.20990 C   0  0  0  0  0  0  0  0  0  0  0  0
   6.47611  -0.19287   0.04423 N   0  0  0  0  0  0  0  0  0  0  0  0
   7.82607  -0.37852   0.28539 C   0  0  0  0  0  0  0  0  0  0  0  0
   8.50261  -1.54090  -0.10159 C   0  0  0  0  0  0  0  0  0  0  0  0
   9.83915  -1.72934   0.18805 C   0  0  0  0  0  0  0  0  0  0  0  0
  10.55834  -0.76250   0.86595 C   0  0  0  0  0  0  0  0  0  0  0  0
   9.90570   0.38883   1.27806 C   0  0  0  0  0  0  0  0  0  0  0  0
  10.78437   1.58438   2.16112 Cl  0  0  0  0  0  0  0  0  0  0  0  0
   8.55691   0.57764   1.01324 C   0  0  0  0  0  0  0  0  0  0  0  0
   7.77594   1.97661   1.66279 Cl  0  0  0  0  0  0  0  0  0  0  0  0
   6.03184   0.94389  -0.73802 C   0  0  0  0  0  0  0  0  0  0  0  0
   4.59923   1.29163  -0.35145 C   0  0  0  0  0  0  0  0  0  0  0  0
  -2.52504   1.54995  -0.85707 C   0  0  0  0  0  0  0  0  0  0  0  0
  -3.87410   1.50511  -0.55632 C   0  0  0  0  0  0  0  0  0  0  0  0
  -6.54593  -0.95856   0.24611 N   0  0  0  0  0  0  0  0  0  0  0  0
  -7.80153  -0.67824   0.52357 C   0  0  0  0  0  0  0  0  0  0  0  0
  -8.87041  -1.52392   0.85362 C   0  0  0  0  0  0  0  0  0  0  0  0
 -12.08167  -1.71824   0.75032 H   0  0  0  0  0  0  0  0  0  0  0  0
 -11.66230  -1.57394   2.45333 H   0  0  0  0  0  0  0  0  0  0  0  0
 -10.99639  -2.90138   1.49266 H   0  0  0  0  0  0  0  0  0  0  0  0
 -11.25149   0.83541   1.23956 H   0  0  0  0  0  0  0  0  0  0  0  0
  -9.33737   2.30567   0.64853 H   0  0  0  0  0  0  0  0  0  0  0  0
  -6.73179   2.32707   0.01839 H   0  0  0  0  0  0  0  0  0  0  0  0
  -4.28035  -1.82031  -0.24239 H   0  0  0  0  0  0  0  0  0  0  0  0
  -1.85195  -1.75251  -0.78639 H   0  0  0  0  0  0  0  0  0  0  0  0
  -0.12547   2.05869  -2.25307 H   0  0  0  0  0  0  0  0  0  0  0  0
   0.16201   2.13091  -0.49176 H   0  0  0  0  0  0  0  0  0  0  0  0
   1.82162   0.50158  -2.47752 H   0  0  0  0  0  0  0  0  0  0  0  0
   2.26741   2.08495  -1.82844 H   0  0  0  0  0  0  0  0  0  0  0  0
   2.18549   1.07945   0.50331 H   0  0  0  0  0  0  0  0  0  0  0  0
   1.79194  -0.47785  -0.24876 H   0  0  0  0  0  0  0  0  0  0  0  0
   4.17003  -0.75600   1.26323 H   0  0  0  0  0  0  0  0  0  0  0  0
   3.54635  -1.83107  -0.01706 H   0  0  0  0  0  0  0  0  0  0  0  0
   5.96503  -2.17788   0.40054 H   0  0  0  0  0  0  0  0  0  0  0  0
   5.64486  -1.62641  -1.27210 H   0  0  0  0  0  0  0  0  0  0  0  0
   7.97187  -2.29694  -0.65716 H   0  0  0  0  0  0  0  0  0  0  0  0
  10.33265  -2.63391  -0.13239 H   0  0  0  0  0  0  0  0  0  0  0  0
  11.60472  -0.89250   1.08668 H   0  0  0  0  0  0  0  0  0  0  0  0
   6.68384   1.79834  -0.57112 H   0  0  0  0  0  0  0  0  0  0  0  0
   6.05458   0.68859  -1.80948 H   0  0  0  0  0  0  0  0  0  0  0  0
   4.26234   2.13745  -0.95205 H   0  0  0  0  0  0  0  0  0  0  0  0
   4.57392   1.58480   0.71352 H   0  0  0  0  0  0  0  0  0  0  0  0
  -2.06041   2.50874  -1.02740 H   0  0  0  0  0  0  0  0  0  0  0  0
  -4.42489   2.43164  -0.49792 H   0  0  0  0  0  0  0  0  0  0  0  0
  -8.68249  -2.58408   0.89626 H   0  0  0  0  0  0  0  0  0  0  0  0
  1  2  1  0  0  0  0
  2  3  4  0  0  0  0
  3  4  2  0  0  0  0
  4  5  1  0  0  0  0
  5  6  1  0  0  0  0
  6  7  4  0  0  0  0
  7  8  1  0  0  0  0
  8  9  4  0  0  0  0
  9 10  4  0  0  0  0
 10 11  4  0  0  0  0
 11 12  1  0  0  0  0
 12 13  1  0  0  0  0
 13 14  1  0  0  0  0
 14 15  1  0  0  0  0
 15 16  1  0  0  0  0
 16 17  1  0  0  0  0
 17 18  1  0  0  0  0
 18 19  1  0  0  0  0
 19 20  1  0  0  0  0
 20 21  4  0  0  0  0
 21 22  4  0  0  0  0
 22 23  4  0  0  0  0
 23 24  4  0  0  0  0
 24 25  1  0  0  0  0
 20 26  4  0  0  0  0
 24 26  4  0  0  0  0
 26 27  1  0  0  0  0
 19 28  1  0  0  0  0
 16 29  1  0  0  0  0
 28 29  1  0  0  0  0
 11 30  4  0  0  0  0
  8 31  4  0  0  0  0
 30 31  4  0  0  0  0
  7 32  1  0  0  0  0
  5 33  1  0  0  0  0
 32 33  2  0  0  0  0
  2 34  2  0  0  0  0
 33 34  4  0  0  0  0
  1 35  1  0  0  0  0
  1 36  1  0  0  0  0
  1 37  1  0  0  0  0
  3 38  1  0  0  0  0
  4 39  1  0  0  0  0
  6 40  1  0  0  0  0
  9 41  1  0  0  0  0
 10 42  1  0  0  0  0
 13 43  1  0  0  0  0
 13 44  1  0  0  0  0
 14 45  1  0  0  0  0
 14 46  1  0  0  0  0
 15 47  1  0  0  0  0
 15 48  1  0  0  0  0
 17 49  1  0  0  0  0
 17 50  1  0  0  0  0
 18 51  1  0  0  0  0
 18 52  1  0  0  0  0
 21 53  1  0  0  0  0
 22 54  1  0  0  0  0
 23 55  1  0  0  0  0
 28 56  1  0  0  0  0
 28 57  1  0  0  0  0
 29 58  1  0  0  0  0
 29 59  1  0  0  0  0
 30 60  1  0  0  0  0
 31 61  1  0  0  0  0
 34 62  1  0  0  0  0
M  END
> <total energy in Eh>
      -97.01091298

> <HL gap in eV>
        2.75826205

> <dipole moment in D>
        4.25254756

$$$$
